Version 4
SHEET 1 3764 680
WIRE 2688 -528 2656 -528
WIRE 1536 -480 1536 -512
WIRE 2736 -448 2736 -512
WIRE 1536 -368 1536 -400
WIRE 2688 -368 2656 -368
WIRE 2736 -336 2736 -352
WIRE 2992 -336 2736 -336
WIRE 2992 -320 2992 -336
WIRE 2736 -304 2736 -336
WIRE 2736 -304 2608 -304
WIRE 2880 -304 2736 -304
WIRE 1536 -240 1536 -256
WIRE 2608 -240 2608 -304
WIRE 2880 -240 2880 -304
WIRE 2992 -176 2992 -256
WIRE 2560 -160 2512 -160
WIRE 2832 -160 2784 -160
WIRE 1536 -144 1536 -160
WIRE 2608 -80 2608 -144
WIRE 2752 -80 2608 -80
WIRE 2880 -80 2880 -144
WIRE 2880 -80 2752 -80
WIRE 2752 -32 2752 -80
FLAG 1536 -144 0
FLAG 1536 -256 Vin
FLAG 1536 -368 0
FLAG 1536 -512 VDD
FLAG 2752 -32 0
FLAG 2736 -608 VDD
FLAG 2736 -560 VDD
FLAG 2736 -400 VDD
FLAG 2608 -192 0
FLAG 2880 -192 0
FLAG 2656 -528 Vin
FLAG 2512 -160 Vin
FLAG 2656 -368 Vin
FLAG 2784 -160 Vin
FLAG 2992 -176 0
FLAG 2992 -336 Vout
SYMBOL voltage 1536 -256 R0
WINDOW 0 -72 21 Left 2
WINDOW 3 -121 144 Left 2
WINDOW 123 0 0 Left 2
WINDOW 39 0 0 Left 2
SYMATTR InstName Vin
SYMATTR Value PULSE(0 1.8 200p 1p 1p 1.5n 3n)
SYMBOL voltage 1536 -496 R0
WINDOW 123 0 0 Left 2
WINDOW 39 0 0 Left 2
SYMATTR InstName VDD
SYMATTR Value 1.8
SYMBOL pmos4 2688 -608 R0
WINDOW 0 77 4 Left 2
WINDOW 123 50 30 Left 2
SYMATTR InstName M5
SYMATTR Value2 l=180n w=8u
SYMATTR Value CMOSP
SYMBOL pmos4 2688 -448 R0
WINDOW 0 61 2 Left 2
WINDOW 123 54 28 Left 2
SYMATTR InstName M6
SYMATTR Value2 l=180n w=8u
SYMATTR Value CMOSP
SYMBOL nmos4 2560 -240 R0
WINDOW 0 67 11 Left 2
WINDOW 123 79 39 Left 2
SYMATTR InstName M7
SYMATTR Value2 l=180n w=2u
SYMATTR Value CMOSN
SYMBOL nmos4 2832 -240 R0
WINDOW 0 59 11 Left 2
WINDOW 123 67 38 Left 2
SYMATTR InstName M8
SYMATTR Value2 l=180n w=2u
SYMATTR Value CMOSN
SYMBOL cap 2976 -320 R0
SYMATTR InstName C2
SYMATTR Value 50f
TEXT 1696 -624 Left 2 !.tran 2.5n
TEXT 1688 -544 Left 2 !.inc "C:\\Users\\Admin\\Desktop\\NOR GATE\\tsms018.txt"
TEXT 2624 -728 Left 2 ;Plot Vout and Vin
TEXT 1928 -848 Left 2 ;Aim: To design and implement two input NAND Gate and NOR Gate \nusing CMOS Logic and measure its porpogation delay wrt each input considering wrost case condition
TEXT 2120 -56 Left 2 ;RS24EC01
