Version 4
SHEET 1 1536 872
WIRE 224 -16 112 -16
WIRE 336 -16 224 -16
WIRE 112 64 112 -16
WIRE 336 64 336 -16
WIRE 880 80 880 32
WIRE 1056 80 1056 32
WIRE -528 96 -528 48
WIRE 64 144 0 144
WIRE 288 144 256 144
WIRE 112 192 112 160
WIRE 224 192 112 192
WIRE 336 192 336 160
WIRE 336 192 224 192
WIRE -528 208 -528 176
WIRE 224 224 224 192
WIRE 224 224 112 224
WIRE 336 224 224 224
WIRE 880 224 880 160
WIRE 1056 224 1056 160
WIRE 112 256 112 224
WIRE 336 256 336 224
WIRE -608 304 -608 272
WIRE -448 304 -448 272
WIRE 64 336 0 336
WIRE 288 336 256 336
WIRE 336 352 336 336
WIRE 112 384 112 352
WIRE 224 384 112 384
WIRE 336 384 336 352
WIRE 336 384 224 384
WIRE 224 400 224 384
WIRE 560 400 224 400
WIRE -608 432 -608 384
WIRE -448 432 -448 384
WIRE 224 432 224 400
WIRE 224 432 112 432
WIRE 352 432 224 432
WIRE 112 464 112 432
WIRE 352 464 352 432
WIRE 64 544 0 544
WIRE 304 544 256 544
WIRE 112 640 112 560
WIRE 352 640 352 560
WIRE 64 720 0 720
WIRE 304 720 256 720
WIRE 112 784 112 736
WIRE 224 784 112 784
WIRE 352 784 352 736
WIRE 352 784 224 784
WIRE 224 832 224 784
FLAG 224 832 0
FLAG -528 208 0
FLAG -528 48 VDD
FLAG -608 432 0
FLAG -448 432 0
FLAG -608 272 A
FLAG -448 272 ABAR
FLAG 880 224 0
FLAG 1056 224 0
FLAG 880 32 B
FLAG 1056 32 BBAR
FLAG 224 -16 VDD
FLAG 112 512 0
FLAG 352 512 0
FLAG 112 688 0
FLAG 352 688 0
FLAG 112 112 VDD
FLAG 336 112 VDD
FLAG 112 304 VDD
FLAG 336 304 VDD
FLAG 256 336 B
FLAG 256 720 B
FLAG 256 144 BBAR
FLAG 0 720 BBAR
FLAG 560 400 VOUT
FLAG 0 144 VDD
FLAG 0 544 VDD
FLAG 0 336 0
FLAG 256 544 0
SYMBOL pmos4 64 64 R0
WINDOW 0 55 21 Left 2
WINDOW 123 56 100 Left 2
SYMATTR InstName M1
SYMATTR Value2 l=180n w=8u
SYMBOL pmos4 288 64 R0
WINDOW 0 59 21 Left 2
WINDOW 123 56 100 Left 2
SYMATTR InstName M2
SYMATTR Value2 l=180n w=8u
SYMBOL pmos4 64 256 R0
WINDOW 0 57 17 Left 2
WINDOW 123 56 100 Left 2
SYMATTR InstName M3
SYMATTR Value2 l=180n w=8u
SYMBOL pmos4 288 256 R0
WINDOW 0 56 21 Left 2
WINDOW 123 56 100 Left 2
SYMATTR InstName M4
SYMATTR Value2 l=180n w=8u
SYMBOL nmos4 64 464 R0
WINDOW 123 56 100 Left 2
SYMATTR Value2 l=180n w=4u
SYMATTR InstName M5
SYMBOL nmos4 304 464 R0
WINDOW 123 56 100 Left 2
SYMATTR Value2 l=180n w=4u
SYMATTR InstName M6
SYMBOL nmos4 64 640 R0
WINDOW 123 56 100 Left 2
SYMATTR Value2 l=180n w=4u
SYMATTR InstName M7
SYMBOL nmos4 304 640 R0
WINDOW 123 56 100 Left 2
SYMATTR Value2 l=180n w=4u
SYMATTR InstName M8
SYMBOL voltage -528 80 R0
WINDOW 123 0 0 Left 0
WINDOW 39 0 0 Left 0
SYMATTR InstName VDD
SYMATTR Value 1.8
SYMBOL voltage -608 288 R0
WINDOW 3 -303 178 Left 2
WINDOW 123 0 0 Left 0
WINDOW 39 0 0 Left 0
SYMATTR Value PULSE(0 1.8 0 0.1n 0.1n 2n 4n)
SYMATTR InstName A
SYMBOL voltage -448 288 R0
WINDOW 123 0 0 Left 0
WINDOW 39 0 0 Left 0
SYMATTR InstName ABAR
SYMATTR Value PULSE(1.8 0 0 0.1n 0.1n 2n 4n)
SYMBOL voltage 880 64 R0
WINDOW 3 -302 121 Left 2
WINDOW 123 0 0 Left 0
WINDOW 39 0 0 Left 0
SYMATTR Value PULSE(1.8 0 0 0.1n 0.1n 1n 2n)
SYMATTR InstName B
SYMBOL voltage 1056 64 R0
WINDOW 123 0 0 Left 0
WINDOW 39 0 0 Left 0
SYMATTR InstName BBAR
SYMATTR Value PULSE(0 1.8 0 0.1n 0.1n 1n 2n)
TEXT -912 856 Left 2 !.tran 0 5n 0.01n 0.01n
TEXT -872 592 Left 2 !.lib tsms018.txt
TEXT 744 400 Left 2 !.meas TRAN tphl TRIG V(b)=0.9 FALL=1 TARG V(vout)=0.9 RISE=1
TEXT 752 456 Left 2 !.meas TRAN tplh TRIG V(b)=0.9 RISE=1 TARG V(vout)=0.9 FALL=1
TEXT 752 512 Left 2 !.meas TRAN avg_delay PARAM (tphl + tplh)/2
TEXT 744 608 Left 2 ;Worst Case Delay\ntphl=1.08693e-09 FROM 4e-11 TO 1.12693e-09\ntplh=-1.08704e-09 FROM 1.14e-09 TO 5.2961e-11\navg_delay: (tphl + tplh)/2=-5.42782e-14
TEXT -864 776 Left 2 ;RS24EC01
TEXT -840 -88 Left 2 ;A= VDD \nB= 1.8 PLUS\nBBAR = 0 PLUS
